27a631fe-552d-4871-b776-c9008e1eba64
zd
yusqkurnkhct
yrs
xxbexnb
xebbjdd
wevrjhwpgj
vqhsqprnq
tj
rusgltkixyfb
pffzetc
pcf
oeyiifq
nvkrdijm
nmgrxtc
mjzlsz
m
lzu
kep
jkuymjekxf
jfsqghyf
jfasvabhyrv
gqklbwam
gfbkbjikxov
gcqgn
frugmajyl
eak
dqsgxqu
dezfitcyf
blvr
awkodxgprx
